<?xml version="1.0" ?>
<routes xmlns:xsi="http://www.w3.org/2001/XMLSchema-instance" xsi:noNamespaceSchemaLocation="http://sumo.dlr.de/xsd/routes_file.xsd">
	<vType id="type1" accel="2.6" decel="4.5" sigma="0.5" length="5" maxSpeed="70"/>
	<flow type="type1" begin="0" end="10" number="1" from="23312594#0" color="blue" to="9821311#0" id="vehicle_2111"/>
	<flow type="type1" begin="0" end="10" number="1" from="33782335#0" color="blue" to="1065949258" id="vehicle_2361"/>
	<flow type="type1" begin="0" end="10" number="1" from="266778571#0" color="blue" to="927792935" id="vehicle_8584"/>
	<flow type="type1" begin="0" end="10" number="1" from="32708419" color="blue" to="22736051#5" id="vehicle_10408"/>
	<flow type="type1" begin="0" end="10" number="1" from="-192297049#1" color="blue" to="62993887#1" id="vehicle_12265"/>
	<flow type="type1" begin="0" end="10" number="1" from="-374994533#6" color="blue" to="28252925" id="vehicle_19234"/>
	<flow type="type1" begin="0" end="10" number="1" from="55641550#1" color="blue" to="-34761131#3" id="vehicle_22073"/>
	<flow type="type1" begin="0" end="10" number="1" from="44124733#0" color="blue" to="34374692" id="vehicle_24341"/>
	<flow type="type1" begin="0" end="10" number="1" from="145124411#9" color="blue" to="-169015342#1" id="vehicle_24641"/>
	<flow type="type1" begin="0" end="10" number="1" from="-945091645#2" color="blue" to="44779360#4" id="vehicle_26882"/>
	<flow type="type1" begin="0" end="10" number="1" from="180534094#1" color="blue" to="575728051" id="vehicle_27589"/>
	<flow type="type1" begin="0" end="10" number="1" from="19831016#0" color="blue" to="35274593#2" id="vehicle_27738"/>
	<flow type="type1" begin="1" end="11" number="1" from="668139707" color="blue" to="467653239#0" id="vehicle_983"/>
	<flow type="type1" begin="1" end="11" number="1" from="957107410-AddedOffRampEdge" color="blue" to="23313106#9" id="vehicle_3522"/>
	<flow type="type1" begin="1" end="11" number="1" from="528121817" color="blue" to="95104334" id="vehicle_7072"/>
	<flow type="type1" begin="1" end="11" number="1" from="243051429#1" color="blue" to="-72454570#2" id="vehicle_15511"/>
	<flow type="type1" begin="1" end="11" number="1" from="299456211" color="blue" to="381755652#1" id="vehicle_19770"/>
	<flow type="type1" begin="1" end="11" number="1" from="266466739" color="blue" to="40336446" id="vehicle_25236"/>
	<flow type="type1" begin="1" end="11" number="1" from="61591267#4" color="blue" to="71527898#0" id="vehicle_27764"/>
	<flow type="type1" begin="2" end="12" number="1" from="170130527" color="blue" to="-25941978" id="vehicle_7265"/>
	<flow type="type1" begin="2" end="12" number="1" from="55936540" color="blue" to="186491016" id="vehicle_9005"/>
	<flow type="type1" begin="2" end="12" number="1" from="293175063" color="blue" to="265305087" id="vehicle_12367"/>
	<flow type="type1" begin="2" end="12" number="1" from="112072267" color="blue" to="-116488266#0" id="vehicle_15180"/>
	<flow type="type1" begin="2" end="12" number="1" from="-52026993" color="blue" to="940482583#2" id="vehicle_17724"/>
	<flow type="type1" begin="2" end="12" number="1" from="-55641550#0" color="blue" to="39491794#0" id="vehicle_18090"/>
	<flow type="type1" begin="2" end="12" number="1" from="41432142" color="blue" to="41432210#0" id="vehicle_21020"/>
	<flow type="type1" begin="2" end="12" number="1" from="14581116#2" color="blue" to="64312815#1" id="vehicle_28059"/>
	<flow type="type1" begin="2" end="12" number="1" from="79183317#7" color="blue" to="-59310707" id="vehicle_28788"/>
	<flow type="type1" begin="2" end="12" number="1" from="939311537#0" color="blue" to="157168429" id="vehicle_29926"/>
	<flow type="type1" begin="3" end="13" number="1" from="191701556#0" color="blue" to="41732987#1" id="vehicle_403"/>
	<flow type="type1" begin="3" end="13" number="1" from="220466415" color="blue" to="44722508#4" id="vehicle_2450"/>
	<flow type="type1" begin="3" end="13" number="1" from="-313403863" color="blue" to="-316373400" id="vehicle_5961"/>
	<flow type="type1" begin="3" end="13" number="1" from="-154231280" color="blue" to="50306071#5" id="vehicle_8960"/>
	<flow type="type1" begin="3" end="13" number="1" from="-302022998" color="blue" to="-467653239#2" id="vehicle_15809"/>
	<flow type="type1" begin="3" end="13" number="1" from="45336715#0" color="blue" to="195034436" id="vehicle_15865"/>
	<flow type="type1" begin="3" end="13" number="1" from="4968774" color="blue" to="34089976" id="vehicle_21207"/>
	<flow type="type1" begin="4" end="14" number="1" from="32707901#0" color="blue" to="-356117986" id="vehicle_3732"/>
	<flow type="type1" begin="4" end="14" number="1" from="172410770#0" color="blue" to="-243033058#0" id="vehicle_3898"/>
	<flow type="type1" begin="4" end="14" number="1" from="-900439225#2" color="blue" to="-320794589" id="vehicle_7323"/>
	<flow type="type1" begin="4" end="14" number="1" from="210588072" color="blue" to="55936539" id="vehicle_9715"/>
	<flow type="type1" begin="4" end="14" number="1" from="264446689#2" color="blue" to="29026476#0" id="vehicle_11372"/>
	<flow type="type1" begin="4" end="14" number="1" from="27655535#0-AddedOffRampEdge" color="blue" to="340526131#3" id="vehicle_11512"/>
	<flow type="type1" begin="4" end="14" number="1" from="162546937" color="blue" to="44130921" id="vehicle_11655"/>
	<flow type="type1" begin="4" end="14" number="1" from="690314224#0-AddedOffRampEdge" color="blue" to="35275103#0" id="vehicle_16335"/>
	<flow type="type1" begin="4" end="14" number="1" from="32680630#5" color="blue" to="23248278#0" id="vehicle_21225"/>
	<flow type="type1" begin="4" end="14" number="1" from="403267423" color="blue" to="15239683#2" id="vehicle_21912"/>
	<flow type="type1" begin="4" end="14" number="1" from="-25828135" color="blue" to="-39884023" id="vehicle_28706"/>
	<flow type="type1" begin="5" end="15" number="1" from="4911073" color="blue" to="-35559746#3" id="vehicle_6816"/>
	<flow type="type1" begin="5" end="15" number="1" from="168553886" color="blue" to="575728051" id="vehicle_9811"/>
	<flow type="type1" begin="5" end="15" number="1" from="59547532#3" color="blue" to="-24987224#2" id="vehicle_15031"/>
	<flow type="type1" begin="5" end="15" number="1" from="30636647#7" color="blue" to="-953287253#7" id="vehicle_19825"/>
	<flow type="type1" begin="5" end="15" number="1" from="181442832-AddedOffRampEdge" color="blue" to="444144471#0" id="vehicle_23947"/>
	<flow type="type1" begin="5" end="15" number="1" from="-245764889" color="blue" to="135995136#0" id="vehicle_28441"/>
	<flow type="type1" begin="5" end="15" number="1" from="24324546#0" color="blue" to="-269225180#2" id="vehicle_28578"/>
	<flow type="type1" begin="5" end="15" number="1" from="154635213#0" color="blue" to="191694919" id="vehicle_29128"/>
	<flow type="type1" begin="6" end="16" number="1" from="-161324067#2" color="blue" to="29200864" id="vehicle_1171"/>
	<flow type="type1" begin="6" end="16" number="1" from="47374204#0" color="blue" to="172431732" id="vehicle_3694"/>
	<flow type="type1" begin="6" end="16" number="1" from="25245894" color="blue" to="51056088#1" id="vehicle_4878"/>
	<flow type="type1" begin="6" end="16" number="1" from="-120066554#2" color="blue" to="29201559" id="vehicle_12876"/>
	<flow type="type1" begin="6" end="16" number="1" from="162729520#1" color="blue" to="255192292#1" id="vehicle_14754"/>
	<flow type="type1" begin="6" end="16" number="1" from="528121816" color="blue" to="55641547" id="vehicle_15819"/>
	<flow type="type1" begin="6" end="16" number="1" from="273827184" color="blue" to="-45270576#2" id="vehicle_21628"/>
	<flow type="type1" begin="6" end="16" number="1" from="456107642#0" color="blue" to="-493958208#1" id="vehicle_21731"/>
	<flow type="type1" begin="6" end="16" number="1" from="-34761131#4" color="blue" to="470192516#0" id="vehicle_22365"/>
	<flow type="type1" begin="7" end="17" number="1" from="899831801#0" color="blue" to="286810145#0" id="vehicle_1005"/>
	<flow type="type1" begin="7" end="17" number="1" from="900439226" color="blue" to="124165599" id="vehicle_1029"/>
	<flow type="type1" begin="7" end="17" number="1" from="456107642#1" color="blue" to="-900439225#2" id="vehicle_1436"/>
	<flow type="type1" begin="7" end="17" number="1" from="52093222#0" color="blue" to="93724456#9" id="vehicle_7709"/>
	<flow type="type1" begin="7" end="17" number="1" from="44128866" color="blue" to="-378108605" id="vehicle_9421"/>
	<flow type="type1" begin="7" end="17" number="1" from="1022982875" color="blue" to="370628328#5" id="vehicle_17956"/>
	<flow type="type1" begin="7" end="17" number="1" from="434350348#1" color="blue" to="49031507#0" id="vehicle_22368"/>
	<flow type="type1" begin="7" end="17" number="1" from="-378950430#9" color="blue" to="26603867#0-AddedOffRampEdge" id="vehicle_24499"/>
	<flow type="type1" begin="7" end="17" number="1" from="1036789793" color="blue" to="-44130917" id="vehicle_28747"/>
	<flow type="type1" begin="8" end="18" number="1" from="37455489#0" color="blue" to="442737256" id="vehicle_4729"/>
	<flow type="type1" begin="8" end="18" number="1" from="240181965#2" color="blue" to="145586605#0" id="vehicle_6761"/>
	<flow type="type1" begin="8" end="18" number="1" from="-319800779#2" color="blue" to="469657918#0" id="vehicle_8422"/>
	<flow type="type1" begin="8" end="18" number="1" from="668139707" color="blue" to="1022982872" id="vehicle_8666"/>
	<flow type="type1" begin="8" end="18" number="1" from="270439251#0" color="blue" to="-172431710#1" id="vehicle_18212"/>
	<flow type="type1" begin="8" end="18" number="1" from="264771340#0" color="blue" to="265630463#0" id="vehicle_18384"/>
	<flow type="type1" begin="8" end="18" number="1" from="900439226" color="blue" to="623182790#4" id="vehicle_24322"/>
	<flow type="type1" begin="8" end="18" number="1" from="1013673852" color="blue" to="184231213#2" id="vehicle_29752"/>
	<flow type="type1" begin="9" end="19" number="1" from="-154231371" color="blue" to="-55641550#2" id="vehicle_2608"/>
	<flow type="type1" begin="9" end="19" number="1" from="-113752538#6" color="blue" to="329347645" id="vehicle_10654"/>
	<flow type="type1" begin="9" end="19" number="1" from="189145628#1" color="blue" to="62299051" id="vehicle_15573"/>
	<flow type="type1" begin="9" end="19" number="1" from="891174715" color="blue" to="145586605#1" id="vehicle_16158"/>
	<flow type="type1" begin="9" end="19" number="1" from="45254759#2" color="blue" to="218334978" id="vehicle_28367"/>
	<flow type="type1" begin="9" end="19" number="1" from="224333935#0" color="blue" to="-340126127#1" id="vehicle_28869"/>
	<flow type="type1" begin="10" end="20" number="1" from="891174715" color="blue" to="4620824" id="vehicle_9132"/>
	<flow type="type1" begin="10" end="20" number="1" from="4911073" color="blue" to="-201667945" id="vehicle_10790"/>
	<flow type="type1" begin="10" end="20" number="1" from="-49025103" color="blue" to="192130970#0" id="vehicle_17744"/>
	<flow type="type1" begin="10" end="20" number="1" from="-145124411#10" color="blue" to="14580779" id="vehicle_18608"/>
	<flow type="type1" begin="10" end="20" number="1" from="243051430#2" color="blue" to="220181326#0" id="vehicle_21190"/>
	<flow type="type1" begin="10" end="20" number="1" from="264313909#0" color="blue" to="-265213283#2" id="vehicle_26979"/>
	<flow type="type1" begin="11" end="21" number="1" from="-172431723" color="blue" to="692559002" id="vehicle_1386"/>
	<flow type="type1" begin="11" end="21" number="1" from="-25608654" color="blue" to="32450434#1" id="vehicle_1486"/>
	<flow type="type1" begin="11" end="21" number="1" from="-290550547#1" color="blue" to="-1036604461" id="vehicle_2547"/>
	<flow type="type1" begin="11" end="21" number="1" from="329347636" color="blue" to="154819929" id="vehicle_2849"/>
	<flow type="type1" begin="11" end="21" number="1" from="203301198" color="blue" to="111502231#0" id="vehicle_5563"/>
	<flow type="type1" begin="11" end="21" number="1" from="430748702#0" color="blue" to="591311357" id="vehicle_7382"/>
	<flow type="type1" begin="11" end="21" number="1" from="-302251249#2" color="blue" to="167107571" id="vehicle_13773"/>
	<flow type="type1" begin="11" end="21" number="1" from="-4520806#3" color="blue" to="-33421760#2" id="vehicle_14402"/>
	<flow type="type1" begin="11" end="21" number="1" from="591311357" color="blue" to="-190029467#4" id="vehicle_14469"/>
	<flow type="type1" begin="11" end="21" number="1" from="128460249#0" color="blue" to="-201667949#9" id="vehicle_20251"/>
	<flow type="type1" begin="11" end="21" number="1" from="-302022998" color="blue" to="264652606#0" id="vehicle_23086"/>
	<flow type="type1" begin="11" end="21" number="1" from="170136421#1" color="blue" to="-59547550#3" id="vehicle_24470"/>
	<flow type="type1" begin="12" end="22" number="1" from="-264338758#4" color="blue" to="-23815509#2" id="vehicle_796"/>
	<flow type="type1" begin="12" end="22" number="1" from="336646868#0" color="blue" to="-45831503#0" id="vehicle_1434"/>
	<flow type="type1" begin="12" end="22" number="1" from="-265929587#1" color="blue" to="-29137508#1" id="vehicle_7119"/>
	<flow type="type1" begin="12" end="22" number="1" from="24317966#0" color="blue" to="-33421760#2" id="vehicle_7121"/>
	<flow type="type1" begin="12" end="22" number="1" from="259714471#1" color="blue" to="13076786#0" id="vehicle_9500"/>
	<flow type="type1" begin="12" end="22" number="1" from="302022998" color="blue" to="662951148" id="vehicle_9783"/>
	<flow type="type1" begin="12" end="22" number="1" from="353018598" color="blue" to="-44308005#2" id="vehicle_10544"/>
	<flow type="type1" begin="12" end="22" number="1" from="940482583#1" color="blue" to="-201667945" id="vehicle_16425"/>
	<flow type="type1" begin="12" end="22" number="1" from="-900439225#2" color="blue" to="963963104" id="vehicle_19686"/>
	<flow type="type1" begin="13" end="23" number="1" from="214416963" color="blue" to="45245796#1" id="vehicle_12928"/>
	<flow type="type1" begin="13" end="23" number="1" from="257770542#0" color="blue" to="301388491#0" id="vehicle_23693"/>
	<flow type="type1" begin="13" end="23" number="1" from="-30336998#2" color="blue" to="-30336741#3" id="vehicle_25874"/>
	<flow type="type1" begin="14" end="24" number="1" from="832595481" color="blue" to="-172410734#3" id="vehicle_1010"/>
	<flow type="type1" begin="14" end="24" number="1" from="35272282#1" color="blue" to="34089988" id="vehicle_1111"/>
	<flow type="type1" begin="14" end="24" number="1" from="39894345#3" color="blue" to="591311357" id="vehicle_8936"/>
	<flow type="type1" begin="14" end="24" number="1" from="294956076#0" color="blue" to="-270374673#1" id="vehicle_12240"/>
	<flow type="type1" begin="14" end="24" number="1" from="204910844#0" color="blue" to="283770132" id="vehicle_13032"/>
	<flow type="type1" begin="14" end="24" number="1" from="668139707" color="blue" to="447706832#0" id="vehicle_13524"/>
	<flow type="type1" begin="14" end="24" number="1" from="172431723" color="blue" to="175186210" id="vehicle_14588"/>
	<flow type="type1" begin="14" end="24" number="1" from="-403267433" color="blue" to="-196204277#1" id="vehicle_16575"/>
	<flow type="type1" begin="15" end="25" number="1" from="370461999" color="blue" to="29201557" id="vehicle_3415"/>
	<flow type="type1" begin="15" end="25" number="1" from="370628332#0" color="blue" to="374156229" id="vehicle_8137"/>
	<flow type="type1" begin="15" end="25" number="1" from="-269492328#2" color="blue" to="1022982875" id="vehicle_19260"/>
	<flow type="type1" begin="15" end="25" number="1" from="243051430#2" color="blue" to="29200948" id="vehicle_25537"/>
	<flow type="type1" begin="15" end="25" number="1" from="-209171726" color="blue" to="-313143602#2" id="vehicle_27739"/>
	<flow type="type1" begin="16" end="26" number="1" from="-270454520#2" color="blue" to="32533296" id="vehicle_1506"/>
	<flow type="type1" begin="16" end="26" number="1" from="-45270634#1" color="blue" to="156559116#0" id="vehicle_2558"/>
	<flow type="type1" begin="16" end="26" number="1" from="-900439225#2" color="blue" to="248637521#1" id="vehicle_7497"/>
	<flow type="type1" begin="16" end="26" number="1" from="-299892525#2" color="blue" to="178756050#0" id="vehicle_15030"/>
	<flow type="type1" begin="16" end="26" number="1" from="154231297#0" color="blue" to="24796766#0" id="vehicle_19533"/>
	<flow type="type1" begin="16" end="26" number="1" from="-900439225#2" color="blue" to="185455099#0" id="vehicle_29799"/>
	<flow type="type1" begin="17" end="27" number="1" from="202447240#0" color="blue" to="98348245" id="vehicle_3535"/>
	<flow type="type1" begin="17" end="27" number="1" from="55641550#4" color="blue" to="-39894343#1" id="vehicle_4033"/>
	<flow type="type1" begin="17" end="27" number="1" from="-450221951#0" color="blue" to="31991937" id="vehicle_6250"/>
	<flow type="type1" begin="17" end="27" number="1" from="-39894345#5" color="blue" to="-43760375#3" id="vehicle_11791"/>
	<flow type="type1" begin="17" end="27" number="1" from="59547539" color="blue" to="-900439225#0" id="vehicle_12081"/>
	<flow type="type1" begin="17" end="27" number="1" from="95111031" color="blue" to="45702900#1" id="vehicle_16365"/>
	<flow type="type1" begin="17" end="27" number="1" from="-28901010#2" color="blue" to="29101486" id="vehicle_20352"/>
	<flow type="type1" begin="17" end="27" number="1" from="-900439225#2" color="blue" to="31770597" id="vehicle_20933"/>
	<flow type="type1" begin="18" end="28" number="1" from="-274074318#1" color="blue" to="29201559" id="vehicle_2877"/>
	<flow type="type1" begin="18" end="28" number="1" from="31771608#1" color="blue" to="623182790#4" id="vehicle_7528"/>
	<flow type="type1" begin="18" end="28" number="1" from="4968774" color="blue" to="201668559" id="vehicle_8546"/>
	<flow type="type1" begin="18" end="28" number="1" from="44128866" color="blue" to="-623182790#3" id="vehicle_11858"/>
	<flow type="type1" begin="18" end="28" number="1" from="-353021172#4" color="blue" to="34374721" id="vehicle_13817"/>
	<flow type="type1" begin="18" end="28" number="1" from="-34374733#3" color="blue" to="45336711#0" id="vehicle_15888"/>
	<flow type="type1" begin="18" end="28" number="1" from="24959733#3" color="blue" to="-457204668#7" id="vehicle_17694"/>
	<flow type="type1" begin="18" end="28" number="1" from="900439226" color="blue" to="-274795798#1" id="vehicle_21867"/>
	<flow type="type1" begin="18" end="28" number="1" from="154962677#0" color="blue" to="30019193" id="vehicle_26011"/>
	<flow type="type1" begin="19" end="29" number="1" from="32029734#0" color="blue" to="210743107#0" id="vehicle_10"/>
	<flow type="type1" begin="19" end="29" number="1" from="900439226" color="blue" to="237849096#1" id="vehicle_5001"/>
	<flow type="type1" begin="19" end="29" number="1" from="-172410764#0" color="blue" to="-29200852" id="vehicle_12223"/>
	<flow type="type1" begin="19" end="29" number="1" from="-100966872#2" color="blue" to="14581116#0" id="vehicle_15695"/>
	<flow type="type1" begin="19" end="29" number="1" from="-206327851" color="blue" to="172556554#5" id="vehicle_17650"/>
	<flow type="type1" begin="19" end="29" number="1" from="-336646868#1" color="blue" to="274955194" id="vehicle_19084"/>
	<flow type="type1" begin="19" end="29" number="1" from="353268755#0" color="blue" to="394317169" id="vehicle_20190"/>
	<flow type="type1" begin="19" end="29" number="1" from="47374204#0" color="blue" to="-172410734#5" id="vehicle_22002"/>
	<flow type="type1" begin="19" end="29" number="1" from="-264315231" color="blue" to="264338764#0" id="vehicle_24324"/>
	<flow type="type1" begin="19" end="29" number="1" from="273253057#1" color="blue" to="1076004492#0" id="vehicle_27169"/>
	<flow type="type1" begin="19" end="29" number="1" from="94526119#0" color="blue" to="568674277" id="vehicle_29675"/>
	<flow type="type1" begin="20" end="30" number="1" from="100992663" color="blue" to="-23660013#1" id="vehicle_6747"/>
	<flow type="type1" begin="20" end="30" number="1" from="30334778#0" color="blue" to="927692887" id="vehicle_8669"/>
	<flow type="type1" begin="20" end="30" number="1" from="323217245#4" color="blue" to="-45753923" id="vehicle_9447"/>
	<flow type="type1" begin="20" end="30" number="1" from="591311357" color="blue" to="154231289#0" id="vehicle_15815"/>
	<flow type="type1" begin="20" end="30" number="1" from="111611205#0" color="blue" to="4521118#0" id="vehicle_15981"/>
	<flow type="type1" begin="20" end="30" number="1" from="4011978#0" color="blue" to="575728051" id="vehicle_16858"/>
	<flow type="type1" begin="20" end="30" number="1" from="108600569#0" color="blue" to="-33421760#2" id="vehicle_17474"/>
	<flow type="type1" begin="20" end="30" number="1" from="45336713" color="blue" to="1002952427" id="vehicle_27019"/>
	<flow type="type1" begin="20" end="30" number="1" from="-953042437#2" color="blue" to="276479949#0" id="vehicle_29836"/>
	<flow type="type1" begin="21" end="31" number="1" from="623182790#2" color="blue" to="379064181#0" id="vehicle_155"/>
	<flow type="type1" begin="21" end="31" number="1" from="-353012711#3" color="blue" to="77767390#1" id="vehicle_503"/>
	<flow type="type1" begin="21" end="31" number="1" from="44128866" color="blue" to="-201673016#3" id="vehicle_580"/>
	<flow type="type1" begin="21" end="31" number="1" from="-168553879#1" color="blue" to="4011792#0" id="vehicle_2537"/>
	<flow type="type1" begin="21" end="31" number="1" from="34427441" color="blue" to="243051429#0" id="vehicle_5293"/>
	<flow type="type1" begin="21" end="31" number="1" from="24871207" color="blue" to="23105487" id="vehicle_5588"/>
	<flow type="type1" begin="21" end="31" number="1" from="-28878000" color="blue" to="29414025#0" id="vehicle_12503"/>
	<flow type="type1" begin="21" end="31" number="1" from="-172431729" color="blue" to="1008851421#0" id="vehicle_19172"/>
	<flow type="type1" begin="21" end="31" number="1" from="45406467" color="blue" to="184290230" id="vehicle_20976"/>
	<flow type="type1" begin="21" end="31" number="1" from="370582329#0" color="blue" to="-167107560#4" id="vehicle_26966"/>
	<flow type="type1" begin="21" end="31" number="1" from="-112069231#1" color="blue" to="60129357#0" id="vehicle_29159"/>
	<flow type="type1" begin="22" end="32" number="1" from="22991350#7" color="blue" to="-183217902#1" id="vehicle_6802"/>
	<flow type="type1" begin="22" end="32" number="1" from="240181965#1" color="blue" to="-35272282#0" id="vehicle_7874"/>
	<flow type="type1" begin="22" end="32" number="1" from="27956887#1" color="blue" to="28252978#0" id="vehicle_7979"/>
	<flow type="type1" begin="22" end="32" number="1" from="119912316" color="blue" to="-50306070#3" id="vehicle_8754"/>
	<flow type="type1" begin="22" end="32" number="1" from="310805819#0" color="blue" to="141323229#0" id="vehicle_8890"/>
	<flow type="type1" begin="22" end="32" number="1" from="-120066554#2" color="blue" to="-370628328#7" id="vehicle_9915"/>
	<flow type="type1" begin="22" end="32" number="1" from="120066542" color="blue" to="1086753723#1" id="vehicle_12576"/>
	<flow type="type1" begin="22" end="32" number="1" from="-23679475#0" color="blue" to="24751213" id="vehicle_16260"/>
	<flow type="type1" begin="22" end="32" number="1" from="-558000548" color="blue" to="-44308005#2" id="vehicle_25085"/>
	<flow type="type1" begin="23" end="33" number="1" from="252472885#2" color="blue" to="120191829" id="vehicle_10282"/>
	<flow type="type1" begin="23" end="33" number="1" from="157120513#0" color="blue" to="698849918-AddedOffRampEdge" id="vehicle_11009"/>
	<flow type="type1" begin="23" end="33" number="1" from="565727007#3" color="blue" to="271131034-AddedOnRampEdge" id="vehicle_11075"/>
	<flow type="type1" begin="23" end="33" number="1" from="62955885#0" color="blue" to="-280775060" id="vehicle_14187"/>
	<flow type="type1" begin="24" end="34" number="1" from="112072213#0" color="blue" to="-116488266#0" id="vehicle_8347"/>
	<flow type="type1" begin="24" end="34" number="1" from="45336748#0" color="blue" to="668139710" id="vehicle_8692"/>
	<flow type="type1" begin="24" end="34" number="1" from="623182790#2" color="blue" to="-378108605" id="vehicle_14096"/>
	<flow type="type1" begin="24" end="34" number="1" from="45593089#12" color="blue" to="-35156742#1" id="vehicle_24441"/>
	<flow type="type1" begin="24" end="34" number="1" from="266538595#0" color="blue" to="275921347" id="vehicle_24947"/>
	<flow type="type1" begin="24" end="34" number="1" from="900439226" color="blue" to="899831801#0" id="vehicle_26546"/>
	<flow type="type1" begin="25" end="35" number="1" from="243051430#2" color="blue" to="44130916" id="vehicle_1558"/>
	<flow type="type1" begin="25" end="35" number="1" from="668139707" color="blue" to="23313104#2" id="vehicle_5110"/>
	<flow type="type1" begin="25" end="35" number="1" from="44128866" color="blue" to="1022982877" id="vehicle_10059"/>
	<flow type="type1" begin="25" end="35" number="1" from="-124082336#5" color="blue" to="722583957" id="vehicle_11881"/>
	<flow type="type1" begin="25" end="35" number="1" from="-271984059#3" color="blue" to="-24661773#5" id="vehicle_14040"/>
	<flow type="type1" begin="25" end="35" number="1" from="23275822#0" color="blue" to="30336870#0" id="vehicle_16052"/>
	<flow type="type1" begin="25" end="35" number="1" from="44128866" color="blue" to="-44128865" id="vehicle_16595"/>
	<flow type="type1" begin="25" end="35" number="1" from="-24987224#2" color="blue" to="23231000#0" id="vehicle_26177"/>
	<flow type="type1" begin="25" end="35" number="1" from="434350347" color="blue" to="-273756655#1" id="vehicle_26272"/>
	<flow type="type1" begin="25" end="35" number="1" from="98004458#0" color="blue" to="-86969858" id="vehicle_29794"/>
	<flow type="type1" begin="25" end="35" number="1" from="-900439225#2" color="blue" to="210933742#0" id="vehicle_29879"/>
	<flow type="type1" begin="26" end="36" number="1" from="900439226" color="blue" to="248637557" id="vehicle_2140"/>
	<flow type="type1" begin="26" end="36" number="1" from="45336713" color="blue" to="1022982874" id="vehicle_7965"/>
	<flow type="type1" begin="26" end="36" number="1" from="25974311" color="blue" to="196204234" id="vehicle_8038"/>
	<flow type="type1" begin="26" end="36" number="1" from="29026870" color="blue" to="520743848" id="vehicle_10577"/>
	<flow type="type1" begin="26" end="36" number="1" from="29026703#1" color="blue" to="1086753760" id="vehicle_12000"/>
	<flow type="type1" begin="26" end="36" number="1" from="-201673019#0" color="blue" to="156559116#0" id="vehicle_14824"/>
	<flow type="type1" begin="26" end="36" number="1" from="770270885" color="blue" to="43760402" id="vehicle_15776"/>
	<flow type="type1" begin="26" end="36" number="1" from="93180107" color="blue" to="-396891329#1" id="vehicle_18323"/>
	<flow type="type1" begin="26" end="36" number="1" from="-145124411#1" color="blue" to="-85521035#2" id="vehicle_19227"/>
	<flow type="type1" begin="26" end="36" number="1" from="30337183#0" color="blue" to="-174287359" id="vehicle_19910"/>
	<flow type="type1" begin="26" end="36" number="1" from="396874142#0" color="blue" to="-42384407#3" id="vehicle_24303"/>
	<flow type="type1" begin="26" end="36" number="1" from="900439226" color="blue" to="26603894" id="vehicle_24909"/>
	<flow type="type1" begin="26" end="36" number="1" from="58865408#0" color="blue" to="591311358#0" id="vehicle_29062"/>
	<flow type="type1" begin="27" end="37" number="1" from="145586605#0" color="blue" to="722583957" id="vehicle_8106"/>
	<flow type="type1" begin="27" end="37" number="1" from="4968774" color="blue" to="-203280709#3" id="vehicle_9850"/>
	<flow type="type1" begin="27" end="37" number="1" from="81130446" color="blue" to="1022982875" id="vehicle_9862"/>
	<flow type="type1" begin="27" end="37" number="1" from="94946899#0" color="blue" to="949167487" id="vehicle_13671"/>
	<flow type="type1" begin="27" end="37" number="1" from="52983106" color="blue" to="81130450#6" id="vehicle_14334"/>
	<flow type="type1" begin="27" end="37" number="1" from="575728051" color="blue" to="42955627" id="vehicle_16002"/>
	<flow type="type1" begin="27" end="37" number="1" from="668139707" color="blue" to="-955370954" id="vehicle_28996"/>
	<flow type="type1" begin="28" end="38" number="1" from="29026698" color="blue" to="28815541#10" id="vehicle_1954"/>
	<flow type="type1" begin="28" end="38" number="1" from="133322379#0" color="blue" to="4494885#0" id="vehicle_2660"/>
	<flow type="type1" begin="28" end="38" number="1" from="528121818" color="blue" to="34089988" id="vehicle_11554"/>
	<flow type="type1" begin="28" end="38" number="1" from="100992649#3" color="blue" to="-289517156" id="vehicle_13237"/>
	<flow type="type1" begin="28" end="38" number="1" from="173043198#0" color="blue" to="46243316#2" id="vehicle_18305"/>
	<flow type="type1" begin="28" end="38" number="1" from="-886334911" color="blue" to="667429332#0" id="vehicle_27083"/>
	<flow type="type1" begin="29" end="39" number="1" from="4868905#0" color="blue" to="8132442#0" id="vehicle_431"/>
	<flow type="type1" begin="29" end="39" number="1" from="228641054#0" color="blue" to="203536118#0" id="vehicle_541"/>
	<flow type="type1" begin="29" end="39" number="1" from="335067361#0" color="blue" to="-49031356#1" id="vehicle_2874"/>
	<flow type="type1" begin="29" end="39" number="1" from="181442838" color="blue" to="-953287253#9" id="vehicle_3506"/>
	<flow type="type1" begin="29" end="39" number="1" from="4857350#2" color="blue" to="-172282531#3" id="vehicle_6531"/>
	<flow type="type1" begin="29" end="39" number="1" from="23683844#0" color="blue" to="689695310#0" id="vehicle_14685"/>
	<flow type="type1" begin="29" end="39" number="1" from="78250947#0" color="blue" to="26012113#0" id="vehicle_15020"/>
	<flow type="type1" begin="29" end="39" number="1" from="14580810" color="blue" to="258085875#0" id="vehicle_26647"/>
	<flow type="type1" begin="29" end="39" number="1" from="44722520#0" color="blue" to="196664114#0" id="vehicle_26827"/>
	<flow type="type1" begin="29" end="39" number="1" from="891174715" color="blue" to="575728051" id="vehicle_28457"/>